201       
finalsystem
N 31.226000 70.491997 -3.817000
H 30.528000 69.766998 -3.882000
C 32.273998 70.470001 -4.838000
H 32.676998 71.463997 -4.961000
C 31.702999 70.054001 -6.190000
O 30.572001 69.637001 -6.285000
C 33.355000 69.449997 -4.464000
H 32.855999 68.453003 -4.392000
H 34.158001 69.350998 -5.219000
C 33.935001 69.681999 -3.122000
N 34.932999 70.602997 -2.902000
C 33.609001 69.168999 -1.911000
H 32.814999 68.485001 -1.665000
C 35.217999 70.622002 -1.612000
H 35.997002 71.191002 -1.092000
N 34.418999 69.768997 -0.990000
H 34.459999 69.536003 -0.011000
N 35.472000 66.992996 -11.725000
H 36.243000 67.236000 -11.132000
C 35.724998 67.019997 -13.162000
H 34.910000 66.530998 -13.675000
C 37.015999 66.306999 -13.558000
O 38.056000 66.500000 -12.930000
C 35.830002 68.473999 -13.589000
H 34.868000 68.960999 -13.330000
H 36.617001 68.973000 -12.977000
C 36.115002 68.656998 -15.039000
N 35.415001 67.994003 -16.016001
H 34.666000 67.311996 -15.870000
C 37.047001 69.403999 -15.675000
H 37.813000 70.004997 -15.207000
C 35.903000 68.323997 -17.198999
H 35.497002 67.885002 -18.125000
N 36.889999 69.182999 -17.017000
N 39.388000 65.787003 -17.121000
H 40.167000 65.721001 -16.483000
C 39.685001 66.033997 -18.514999
H 38.887001 66.607002 -18.964001
C 39.783001 64.733002 -19.261000
O 40.240002 63.740002 -18.719000
C 41.014999 66.720001 -18.669001
H 41.799999 66.132004 -18.132000
H 41.327999 66.767998 -19.737000
C 41.058998 68.106003 -18.124001
N 42.016998 69.012001 -18.511000
H 42.817001 68.813004 -19.108000
C 40.291000 68.738998 -17.218000
H 39.514999 68.324997 -16.580999
C 41.841000 70.143997 -17.856001
H 42.537998 70.987999 -17.965000
N 40.792999 70.007004 -17.069000
N 40.037998 67.555000 -11.257000
H 39.161999 67.286003 -11.671000
C 40.018002 68.543999 -10.200000
H 40.487999 68.114998 -9.324000
C 38.617001 68.908997 -9.782000
O 37.657001 68.470001 -10.375000
C 40.791000 69.792999 -10.613000
H 40.807999 70.547997 -9.799000
H 41.852001 69.535004 -10.802000
C 40.272999 70.449997 -11.839000
N 39.348000 71.461998 -11.796000
H 38.950001 71.828003 -10.932000
C 40.542999 70.240997 -13.144000
H 41.215000 69.515999 -13.588000
C 39.063000 71.849998 -13.025000
H 38.349998 72.658997 -13.216000
N 39.778000 71.125999 -13.862000
N 38.515999 69.680000 -8.719000
H 39.316002 69.960999 -8.189000
C 37.268002 70.314003 -8.378000
H 36.481998 69.605003 -8.534000
C 37.129002 71.511002 -9.292000
O 38.073002 72.287003 -9.421000
C 37.268002 70.817001 -6.929000
H 38.090000 71.561996 -6.799000
H 37.544998 69.945000 -6.292000
S 35.657001 71.473000 -6.467000
N 35.958000 71.716003 -9.880000
H 35.185001 71.101997 -9.679000
C 35.777000 72.876999 -10.774000
H 36.736000 73.126999 -11.205000
C 35.316002 74.153000 -10.067000
O 35.235001 75.185997 -10.701000
C 34.833000 72.540001 -11.940000
H 33.805000 72.896004 -11.731000
H 34.769001 71.431999 -12.028000
C 35.279999 73.082001 -13.262000
N 35.502998 74.424004 -13.476000
H 35.462002 75.139000 -12.749000
C 35.539001 72.464996 -14.435000
H 35.424999 71.410004 -14.658000
C 35.876999 74.608002 -14.735000
H 36.134998 75.608002 -15.108000
N 35.922001 73.435997 -15.337000
N 38.612999 76.494003 -5.326000
H 37.754002 76.567001 -5.834000
C 39.047001 75.200996 -4.817000
H 39.404999 75.331001 -3.803000
C 40.213001 74.671997 -5.627000
O 41.226002 74.250000 -5.071000
C 37.912998 74.192001 -4.844000
H 38.327000 73.199997 -4.561000
H 37.483002 74.107002 -5.864000
C 36.826000 74.497002 -3.877000
N 35.854000 73.581001 -3.544000
C 36.566002 75.612999 -3.148000
H 37.084000 76.564003 -3.120000
C 35.022999 74.129997 -2.671000
H 34.124001 73.686996 -2.227000
N 35.433998 75.359001 -2.413000
H 34.990002 76.039001 -1.820000
N 42.931000 71.609001 -5.036000
H 42.469002 72.498001 -5.060000
C 42.132000 70.413002 -5.262000
H 42.515999 69.606003 -4.651000
C 42.269001 69.972000 -6.726000
O 41.332001 70.077003 -7.509000
C 40.678001 70.651001 -4.878000
H 40.282001 71.516998 -5.456000
H 40.101002 69.750999 -5.190000
C 40.421001 70.901001 -3.371000
H 40.976002 70.135002 -2.784000
H 40.845001 71.890999 -3.089000
S 38.630001 70.817001 -2.935000
C 38.241001 69.119003 -3.312000
H 38.248001 68.912003 -4.403000
H 38.963001 68.427002 -2.824000
H 37.230999 68.870003 -2.933000
N 39.362999 75.370003 -23.732000
H 38.872002 76.127998 -23.288000
C 39.172001 74.052002 -23.160999
H 39.784000 73.321999 -23.677999
C 37.695000 73.651001 -23.333000
O 36.813000 74.443001 -23.021999
C 39.530998 74.088997 -21.681000
H 40.623001 74.306999 -21.608999
H 38.992001 74.933998 -21.195999
C 39.233002 72.819000 -20.957001
N 39.842999 71.623001 -21.278999
H 40.597000 71.541000 -21.957001
C 38.383999 72.551003 -19.933001
H 37.685001 73.237999 -19.480000
C 39.373001 70.667000 -20.493999
H 39.681000 69.623001 -20.627001
N 38.487999 71.202003 -19.669001
N 34.570000 70.611000 -22.627001
H 33.896000 71.304001 -22.900000
C 34.048000 69.464996 -21.888000
H 34.840000 68.917999 -21.396000
C 33.381001 68.518997 -22.867001
O 32.863998 68.952003 -23.882999
C 33.005001 69.930000 -20.881001
H 32.424000 69.050003 -20.509001
H 32.276001 70.614998 -21.368999
C 33.569000 70.613998 -19.681000
N 33.375999 70.139999 -18.400999
H 32.887001 69.253998 -18.211000
C 34.310001 71.741997 -19.559999
H 34.603001 72.436996 -20.341999
C 33.986000 70.948997 -17.546000
H 33.889999 70.786003 -16.465000
N 34.564999 71.929001 -18.225000
N 35.563000 76.814003 -22.447001
H 36.257999 76.125000 -22.671000
C 35.964001 77.973999 -21.672001
H 35.613998 78.860001 -22.186001
C 37.476002 78.102997 -21.594999
O 38.209000 77.205002 -21.978001
C 35.361000 77.943001 -20.257000
H 34.254002 77.872002 -20.323999
H 35.568001 78.902000 -19.732000
C 35.845001 76.809998 -19.403999
N 37.043999 76.846001 -18.722000
H 37.703999 77.623001 -18.759001
C 35.277000 75.624001 -19.099001
H 34.320000 75.235001 -19.438000
C 37.191002 75.731003 -18.037001
H 38.054001 75.588997 -17.381001
N 36.132999 74.973000 -18.245001
N 41.215000 78.400002 -19.881001
H 41.748001 78.719002 -20.676001
C 41.869999 77.649002 -18.836000
H 41.220001 77.578003 -17.975000
C 43.143002 78.278000 -18.290001
O 43.801998 77.682999 -17.462000
C 42.165001 76.236000 -19.322001
H 41.464001 75.994003 -20.150000
H 43.189999 76.171997 -19.736000
C 42.014999 75.194000 -18.257999
N 42.831001 75.144997 -17.143999
H 43.541000 75.839996 -16.919001
C 41.144001 74.167000 -18.134001
H 40.370998 73.869003 -18.825001
C 42.476002 74.121002 -16.389999
H 43.000000 73.892998 -15.453000
N 41.450001 73.517998 -16.962999
Cu 35.640999 71.862999 -4.306000
Cu 35.664001 73.217003 -17.282000
Cu 40.230999 71.719002 -16.069000
Cu 37.837002 70.206001 -18.337999
